
Circuit:  

Doing analysis at TEMP = 27.000000 and TNOM = 27.000000

Warning: v1: no DC value, transient time 0 value used

Initial Transient Solution
--------------------------

Node                                   Voltage
----                                   -------
in                                           0
net-_l1-pad1_                                0
out                                          0
l1#branch                                    0
v1#branch                                    0


No. of Data Rows : 138
ERROR: (internal)  This operation is not defined for display type printf.
Can't open viewport for graphics.
ERROR: (internal)  This operation is not defined for display type printf.
Can't open viewport for graphics.
Note: No ".plot", ".print", or ".fourier" lines; no simulations run
